Version 4
SHEET 1 1332 680
WIRE 112 -208 112 -240
WIRE 112 -208 32 -208
WIRE 192 -208 112 -208
WIRE 32 -192 32 -208
WIRE -16 -176 -48 -176
WIRE 32 -144 32 -176
WIRE 192 -112 192 -208
WIRE 672 -112 672 -160
WIRE 880 -112 880 -160
WIRE -48 -96 -48 -176
WIRE -48 -96 -176 -96
WIRE 144 -96 32 -96
WIRE 192 -64 192 -96
WIRE -48 -16 -48 -96
WIRE -16 -16 -48 -16
WIRE 32 -16 32 -48
WIRE 672 0 672 -32
WIRE 880 0 880 -32
WIRE -256 16 -256 -16
WIRE 32 16 32 0
WIRE 32 16 -256 16
WIRE 512 48 512 -48
WIRE 192 64 192 -16
WIRE 368 64 192 64
WIRE 464 64 368 64
WIRE 512 96 512 64
WIRE 32 112 -256 112
WIRE 32 128 32 112
WIRE 368 128 368 64
WIRE -256 144 -256 112
WIRE -16 144 -48 144
WIRE 192 144 192 64
WIRE 32 176 32 144
WIRE -176 224 -176 -96
WIRE -128 224 -176 224
WIRE -48 224 -48 144
WIRE -48 224 -64 224
WIRE 144 224 32 224
WIRE 192 224 192 192
WIRE 848 224 848 192
WIRE 880 224 848 224
WIRE 912 224 912 192
WIRE 912 224 880 224
WIRE 368 256 368 192
WIRE 672 256 672 224
WIRE 880 256 880 224
WIRE -176 304 -176 224
WIRE -48 304 -48 224
WIRE -16 304 -48 304
WIRE 32 304 32 272
WIRE 32 336 32 320
WIRE 112 336 32 336
WIRE 192 336 192 240
WIRE 192 336 112 336
WIRE 112 368 112 336
WIRE 672 368 672 336
WIRE 880 368 880 336
FLAG 112 -240 VDD
IOPIN 112 -240 BiDir
FLAG 112 368 0
FLAG 368 256 0
FLAG -176 304 Vdelta
IOPIN -176 304 In
FLAG 512 -48 Vin
IOPIN 512 -48 In
FLAG -256 -16 Vbp
IOPIN -256 -16 Out
FLAG -256 144 Vbn
IOPIN -256 144 Out
FLAG 672 368 0
FLAG 672 224 VDD
IOPIN 672 224 BiDir
FLAG 880 368 0
FLAG 848 192 Vdelta
IOPIN 848 192 In
FLAG 912 192 Vin
IOPIN 912 192 In
FLAG 672 0 0
FLAG 880 0 0
FLAG 672 -160 Vbp
IOPIN 672 -160 In
FLAG 880 -160 Vbn
IOPIN 880 -160 In
SYMBOL Digital\\inv -128 160 R0
SYMATTR InstName A1
SYMBOL cap 352 128 R0
SYMATTR InstName C1
SYMATTR Value 1n
SYMBOL voltage 672 240 R0
WINDOW 123 0 0 Left 0
WINDOW 39 0 0 Left 0
SYMATTR InstName V1
SYMATTR Value 1
SYMBOL voltage 880 240 R0
WINDOW 123 0 0 Left 0
WINDOW 39 0 0 Left 0
SYMATTR InstName V2
SYMATTR Value PULSE(1 1 0 1n 1n 4u 8u)
SYMBOL nmos4 -16 -96 R0
WINDOW 3 56 60 Left 2
SYMATTR InstName M1
SYMATTR Value2 l=0.05u w=5u
SYMBOL pmos4 -16 -96 M180
SYMATTR InstName M8
SYMATTR Value2 l=0.05u w=5u
SYMBOL pmos4 144 -16 M180
SYMATTR InstName M4
SYMATTR Value2 l=0.05u w=2.5u
SYMBOL pmos4 -16 224 M180
SYMATTR InstName M2
SYMATTR Value2 l=0.05u w=5u
SYMBOL nmos4 -16 224 R0
WINDOW 3 56 60 Left 2
SYMATTR InstName M3
SYMATTR Value2 l=0.05u w=5u
SYMBOL nmos4 144 144 R0
WINDOW 3 56 60 Left 2
SYMATTR InstName M5
SYMATTR Value2 l=0.05u w=3u
SYMBOL pmos4 464 144 M180
SYMATTR InstName M6
SYMATTR Value2 l=0.05u w=0.5u
SYMBOL voltage 672 -128 R0
WINDOW 123 0 0 Left 0
WINDOW 39 0 0 Left 0
SYMATTR InstName V3
SYMATTR Value PULSE(1 0.5 3u 1n 1n 1u 6u)
SYMBOL voltage 880 -128 R0
WINDOW 123 0 0 Left 0
WINDOW 39 0 0 Left 0
SYMATTR InstName V4
SYMATTR Value PULSE(0 0.3 0 1n 1n 2u 6u)
TEXT -184 472 Left 2 !.include C:\\Users\\HP\\Downloads\\p045\\p045_cmos_models_tt.inc
TEXT -184 504 Left 2 !.tran 0 250u 0 1n
